@<TRIPOS>MOLECULE
INI
   55    56     1     0     0
SMALL
bcc


@<TRIPOS>ATOM
      1 C          -34.5920   -37.5500    22.5780 c2         1 INI       0.356000
      2 C12        -34.8660   -36.1100    22.1430 c3         1 INI       0.040000
      3 C13        -36.2350   -36.0830    21.4900 c3         1 INI      -0.156000
      4 C14        -37.3570   -36.1400    22.5230 c3         1 INI      -0.200000
      5 H          -36.3030   -36.9400    20.8110 hc         1 INI       0.090500
      6 H15        -36.3210   -35.1630    20.9010 hc         1 INI       0.090500
      7 C15        -38.7040   -36.1500    21.8480 c2         1 INI       0.322000
      8 H16        -37.2990   -35.2660    23.1820 hc         1 INI       0.081500
      9 H17        -37.2700   -37.0460    23.1330 hc         1 INI       0.081500
     10 O          -33.4710   -38.0150    21.9960 o          1 INI      -0.552500
     11 O7         -39.7290   -36.0720    22.7260 o          1 INI      -0.619000
     12 O8         -35.3070   -38.1600    23.3440 o          1 INI      -0.552500
     13 O9         -34.1010   -35.6070    21.3250 o          1 INI      -0.292000
     14 O10        -38.8800   -36.2310    20.6430 o          1 INI      -0.619000
     15 S          -36.2720   -34.7160    24.3470 ss         1 INI       0.656000
     16 C16        -34.8940   -35.2570    23.4880 c2         1 INI      -0.235000
     17 N          -33.7830   -34.9240    24.1600 na         1 INI      -0.002000
     18 C1         -34.0010   -34.3440    25.4180 c2         1 INI      -0.058000
     19 C2         -35.3210   -34.1790    25.7170 c2         1 INI      -0.328000
     20 C3         -35.9340   -33.8010    27.0350 c3         1 INI      -0.174000
     21 C4         -36.3500   -32.3330    27.2100 c3         1 INI       0.101000
     22 O11        -36.7310   -32.1600    28.5720 os         1 INI      -0.729000
     23 P          -37.9530   -31.0950    28.8900 p5         1 INI       2.045000
     24 P1         -39.9260   -33.3190    28.5480 p5         1 INI       1.700500
     25 N1         -30.0570   -32.1440    23.5990 n2         1 INI      -0.365000
     26 O1         -37.7090   -29.7570    28.2890 o          1 INI      -0.926000
     27 O2         -40.1170   -33.2440    30.1020 o          1 INI      -0.965167
     28 C5         -30.6410   -31.3390    22.6960 c2         1 INI       0.046000
     29 O3         -38.0540   -31.1230    30.4270 o          1 INI      -0.926000
     30 O4         -38.8860   -34.3810    28.1180 o          1 INI      -0.965167
     31 N2         -31.7550   -31.6280    22.0360 n2         1 INI      -0.353000
     32 O5         -39.2200   -31.7970    28.2050 os         1 INI      -1.274000
     33 O6         -41.1570   -33.3660    27.7150 o          1 INI      -0.965167
     34 C6         -32.3760   -32.8190    22.2550 c2         1 INI       0.129000
     35 N3         -33.4870   -33.0760    21.5700 nv         1 INI      -0.383000
     36 C7         -31.8270   -33.7300    23.2130 c2         1 INI      -0.309000
     37 C8         -30.6720   -33.3160    23.8290 c2         1 INI      -0.004000
     38 C9         -32.4170   -35.0620    23.5920 c3         1 INI       0.034000
     39 C10        -30.0120   -30.0070    22.4190 c3         1 INI      -0.140000
     40 C11        -32.8490   -34.0990    26.3250 c3         1 INI      -0.164000
     41 H18        -36.8260   -34.4040    27.2360 hc         1 INI       0.116000
     42 H1         -35.2070   -34.0360    27.8210 hc         1 INI       0.116000
     43 H2         -35.5180   -31.6540    26.9910 h1         1 INI       0.039500
     44 H3         -37.1790   -32.0970    26.5310 h1         1 INI       0.039500
     45 H4         -33.8070   -32.3690    20.9160 hn         1 INI       0.151500
     46 H5         -33.8150   -34.0880    21.4480 hn         1 INI       0.151500
     47 H6         -30.1990   -33.9640    24.5680 h4         1 INI       0.110000
     48 H7         -32.5130   -35.7450    22.7470 h1         1 INI       0.135500
     49 H8         -31.7820   -35.5340    24.3480 h1         1 INI       0.135500
     50 H9         -30.0160   -29.3950    23.3260 hc         1 INI       0.057667
     51 H10        -30.5450   -29.4810    21.6270 hc         1 INI       0.057667
     52 H11        -28.9650   -30.1280    22.1320 hc         1 INI       0.057667
     53 H12        -32.2550   -35.0140    26.4320 hc         1 INI       0.106333
     54 H13        -33.2130   -33.8000    27.3080 hc         1 INI       0.106333
     55 H14        -32.1910   -33.3070    25.9540 hc         1 INI       0.106333
@<TRIPOS>BOND
     1     1     2 1   
     2     1    10 1   
     3     1    12 1   
     4     2     3 1   
     5     2    13 1   
     6     2    16 1   
     7     3     4 1   
     8     3     5 1   
     9     3     6 1   
    10     4     7 1   
    11     4     8 1   
    12     4     9 1   
    13     7    11 1   
    14     7    14 1   
    15    15    16 1   
    16    15    19 1   
    17    16    17 1   
    18    17    18 1   
    19    17    38 1   
    20    18    19 1   
    21    18    40 1   
    22    19    20 1   
    23    20    21 1   
    24    20    41 1   
    25    20    42 1   
    26    21    22 1   
    27    21    43 1   
    28    21    44 1   
    29    22    23 1   
    30    23    26 1   
    31    23    29 1   
    32    23    32 1   
    33    24    27 1   
    34    24    30 1   
    35    24    32 1   
    36    24    33 1   
    37    25    28 1   
    38    25    37 1   
    39    28    31 1   
    40    28    39 1   
    41    31    34 1   
    42    34    35 1   
    43    34    36 1   
    44    35    45 1   
    45    35    46 1   
    46    36    37 1   
    47    36    38 1   
    48    37    47 1   
    49    38    48 1   
    50    38    49 1   
    51    39    50 1   
    52    39    51 1   
    53    39    52 1   
    54    40    53 1   
    55    40    54 1   
    56    40    55 1   
@<TRIPOS>SUBSTRUCTURE
     1 INI         1 TEMP              0 ****  ****    0 ROOT
