@<TRIPOS>MOLECULE
INI
   50    51     1     0     0
SMALL
bcc


@<TRIPOS>ATOM
      1 C          -34.5910   -37.5480    22.5760 c2         1 INI       0.356000
      2 O          -35.2680   -38.1560    23.3790 o          1 INI      -0.594500
      3 O7         -33.5000   -38.0220    21.9410 o          1 INI      -0.594500
      4 C12        -34.8680   -36.1100    22.1450 c3         1 INI       0.112000
      5 O8         -34.1000   -35.6090    21.3250 o          1 INI      -0.345000
      6 C13        -36.2320   -36.1320    21.4860 c3         1 INI      -0.232000
      7 H          -36.9390   -36.7430    22.0530 hc         1 INI       0.076000
      8 H15        -36.1390   -36.5350    20.4760 hc         1 INI       0.076000
      9 H16        -36.6250   -35.1120    21.4480 hc         1 INI       0.076000
     10 S          -36.2720   -34.7160    24.3470 ss         1 INI       1.486000
     11 C14        -34.8940   -35.2570    23.4880 c2         1 INI      -0.709000
     12 N          -33.7830   -34.9240    24.1600 na         1 INI      -0.039000
     13 C1         -34.0010   -34.3440    25.4180 c2         1 INI       0.006000
     14 C2         -35.3210   -34.1790    25.7170 c2         1 INI      -0.709000
     15 C3         -35.9340   -33.8010    27.0350 c3         1 INI      -0.066000
     16 C4         -36.3500   -32.3330    27.2100 c3         1 INI       0.052000
     17 O9         -36.7310   -32.1600    28.5720 os         1 INI      -0.765000
     18 P          -37.9530   -31.0950    28.8900 p5         1 INI       2.064000
     19 P1         -39.9260   -33.3190    28.5480 p5         1 INI       1.813500
     20 N1         -30.0570   -32.1440    23.5990 n2         1 INI      -0.354000
     21 O1         -37.7090   -29.7570    28.2890 o          1 INI      -0.903000
     22 O2         -40.1170   -33.2440    30.1020 o          1 INI      -0.884500
     23 C5         -30.6410   -31.3390    22.6960 c2         1 INI       0.030000
     24 O3         -38.0540   -31.1230    30.4270 o          1 INI      -0.903000
     25 O4         -38.8860   -34.3810    28.1180 o          1 INI      -0.884500
     26 N2         -31.7550   -31.6280    22.0360 n2         1 INI      -0.395000
     27 O5         -39.2200   -31.7970    28.2050 os         1 INI      -1.298000
     28 O6         -41.1570   -33.3660    27.7150 o          1 INI      -0.884500
     29 C6         -32.3760   -32.8190    22.2550 c2         1 INI       0.126000
     30 N3         -33.4870   -33.0760    21.5700 nv         1 INI      -0.427000
     31 C7         -31.8270   -33.7300    23.2130 c2         1 INI      -0.253000
     32 C8         -30.6720   -33.3160    23.8290 c2         1 INI      -0.015000
     33 C9         -32.4170   -35.0620    23.5920 c3         1 INI       0.003000
     34 C10        -30.0120   -30.0070    22.4190 c3         1 INI      -0.134000
     35 C11        -32.8490   -34.0990    26.3250 c3         1 INI      -0.159000
     36 H17        -36.8260   -34.4040    27.2360 hc         1 INI       0.057500
     37 H1         -35.2070   -34.0360    27.8210 hc         1 INI       0.057500
     38 H2         -35.5180   -31.6540    26.9910 h1         1 INI       0.048500
     39 H3         -37.1790   -32.0970    26.5310 h1         1 INI       0.048500
     40 H4         -33.8070   -32.3690    20.9160 hn         1 INI       0.122500
     41 H5         -33.8150   -34.0880    21.4480 hn         1 INI       0.122500
     42 H6         -30.1990   -33.9640    24.5680 h4         1 INI       0.153000
     43 H7         -32.5130   -35.7450    22.7470 h1         1 INI       0.135000
     44 H8         -31.7820   -35.5340    24.3480 h1         1 INI       0.135000
     45 H9         -30.0160   -29.3950    23.3260 hc         1 INI       0.049667
     46 H10        -30.5450   -29.4810    21.6270 hc         1 INI       0.049667
     47 H11        -28.9650   -30.1280    22.1320 hc         1 INI       0.049667
     48 H12        -32.2550   -35.0140    26.4320 hc         1 INI       0.081333
     49 H13        -33.2130   -33.8000    27.3080 hc         1 INI       0.081333
     50 H14        -32.1910   -33.3070    25.9540 hc         1 INI       0.081333
@<TRIPOS>BOND
     1     1     2 1   
     2     1     3 1   
     3     1     4 1   
     4     4     5 1   
     5     4     6 1   
     6     4    11 1   
     7     6     7 1   
     8     6     8 1   
     9     6     9 1   
    10    10    11 1   
    11    10    14 1   
    12    11    12 1   
    13    12    13 1   
    14    12    33 1   
    15    13    14 1   
    16    13    35 1   
    17    14    15 1   
    18    15    16 1   
    19    15    36 1   
    20    15    37 1   
    21    16    17 1   
    22    16    38 1   
    23    16    39 1   
    24    17    18 1   
    25    18    21 1   
    26    18    24 1   
    27    18    27 1   
    28    19    22 1   
    29    19    25 1   
    30    19    27 1   
    31    19    28 1   
    32    20    23 1   
    33    20    32 1   
    34    23    26 1   
    35    23    34 1   
    36    26    29 1   
    37    29    30 1   
    38    29    31 1   
    39    30    40 1   
    40    30    41 1   
    41    31    32 1   
    42    31    33 1   
    43    32    42 1   
    44    33    43 1   
    45    33    44 1   
    46    34    45 1   
    47    34    46 1   
    48    34    47 1   
    49    35    48 1   
    50    35    49 1   
    51    35    50 1   
@<TRIPOS>SUBSTRUCTURE
     1 INI         1 TEMP              0 ****  ****    0 ROOT
