REMARK  4 active torsions:
REMARK  status: ('A' for Active; 'I' for Inactive)
REMARK    1  A    between atoms: C_1  and  C_2 
REMARK    2  A    between atoms: C_2  and  C_3 
REMARK    3  A    between atoms: C_3  and  C_4 
REMARK    4  A    between atoms: C_4  and  C_7 
ROOT
HETATM    1  C   UNL     1      -2.756   0.771  -0.018  1.00  0.00     0.010 C 
HETATM    2  H   UNL     1      -2.782   0.143  -0.915  1.00  0.00     0.045 H 
HETATM    3  H   UNL     1      -2.843   0.125   0.863  1.00  0.00     0.045 H 
ENDROOT
BRANCH   1   4
HETATM    4  C   UNL     1      -3.948   1.687  -0.057  1.00  0.00     0.225 C 
HETATM    5  O   UNL     1      -3.912   2.913  -0.112  1.00  0.00    -0.286 OA
BRANCH   4   6
HETATM    6  C   UNL     1      -5.323   1.019  -0.049  1.00  0.00     0.246 C 
HETATM    7  O   UNL     1      -6.298   1.939  -0.165  1.00  0.00    -0.642 OA
HETATM    8  O   UNL     1      -5.479  -0.180   0.049  1.00  0.00    -0.642 OA
ENDBRANCH   4   6
ENDBRANCH   1   4
BRANCH   1   9
HETATM    9  C   UNL     1      -1.445   1.550   0.042  1.00  0.00     0.022 C 
HETATM   10  H   UNL     1      -1.414   2.155   0.955  1.00  0.00     0.049 H 
HETATM   11  H   UNL     1      -1.356   2.215  -0.824  1.00  0.00     0.049 H 
BRANCH   9  12
HETATM   12  C   UNL     1      -0.266   0.611   0.042  1.00  0.00     0.172 C 
HETATM   13  O   UNL     1       0.911   1.251   0.222  1.00  0.00    -0.648 OA
HETATM   14  O   UNL     1      -0.336  -0.597  -0.112  1.00  0.00    -0.648 OA
ENDBRANCH   9  12
ENDBRANCH   1   9
TORSDOF 4
