REMARK  4 active torsions:
REMARK  status: ('A' for Active; 'I' for Inactive)
REMARK    1  A    between atoms: C_1  and  C_2 
REMARK    2  A    between atoms: C_2  and  C_3 
REMARK    3  A    between atoms: C_3  and  C_4 
REMARK    4  A    between atoms: C_13  and  O_16 
ROOT
ATOM      1  C   UNL     1       2.490   0.593  -0.552  1.00  0.00    -0.051 A 
ATOM      2  C   UNL     1       2.875  -0.752  -0.452  1.00  0.00    -0.074 A 
ATOM      3  C   UNL     1       3.424   1.594  -0.248  1.00  0.00    -0.074 A 
ATOM      4  C   UNL     1       4.178  -1.090  -0.073  1.00  0.00    -0.051 A 
ATOM      5  H   UNL     1       2.169  -1.549  -0.679  1.00  0.00     0.084 H 
ATOM      6  C   UNL     1       4.725   1.255   0.126  1.00  0.00    -0.051 A 
ATOM      7  H   UNL     1       3.150   2.645  -0.306  1.00  0.00     0.084 H 
ATOM      8  C   UNL     1       5.094  -0.082   0.206  1.00  0.00     0.065 A 
ATOM      9  H   UNL     1       4.457  -2.137  -0.009  1.00  0.00     0.087 H 
ATOM     10  H   UNL     1       5.450   2.033   0.350  1.00  0.00     0.087 H 
ENDROOT
BRANCH   1  11
ATOM     11  C   UNL     1       1.093   0.959  -0.980  1.00  0.00     0.025 C 
ATOM     12  H   UNL     1       1.067   1.983  -1.372  1.00  0.00     0.052 H 
ATOM     13  H   UNL     1       0.781   0.326  -1.818  1.00  0.00     0.052 H 
BRANCH  11  14
ATOM     14  C   UNL     1       0.097   0.884   0.145  1.00  0.00     0.229 C 
ATOM     15  O   UNL     1      -0.015   1.695   1.061  1.00  0.00    -0.285 OA
BRANCH  14  16
ATOM     16  C   UNL     1      -0.863  -0.302   0.146  1.00  0.00     0.247 C 
ATOM     17  O   UNL     1      -0.834  -1.193  -0.675  1.00  0.00    -0.642 OA
ATOM     18  O   UNL     1      -1.738  -0.195   1.165  1.00  0.00    -0.642 OA
ENDBRANCH  14  16
ENDBRANCH  11  14
ENDBRANCH   1  11
BRANCH   8  19
ATOM     19  O   UNL     1       6.378  -0.365   0.563  1.00  0.00    -0.361 OA
ATOM     20  H   UNL     1       6.499  -1.329   0.548  1.00  0.00     0.217 HD
ENDBRANCH   8  19
TORSDOF 4
