MODEL 1
REMARK VINA RESULT:    -3.563      0.000      0.000
REMARK INTER + INTRA:          -4.502
REMARK INTER:                  -4.292
REMARK INTRA:                  -0.211
REMARK UNBOUND:                -0.211
REMARK  4 active torsions:
REMARK  status: ('A' for Active; 'I' for Inactive)
REMARK    1  A    between atoms: C_1  and  C_2 
REMARK    2  A    between atoms: C_2  and  C_3 
REMARK    3  A    between atoms: C_3  and  C_4 
REMARK    4  A    between atoms: C_13  and  O_16 
ROOT
ATOM      1  C   UNL     1     -38.724 -41.751  18.841  1.00  0.00    -0.051 A 
ATOM      2  C   UNL     1     -38.867 -41.764  17.446  1.00  0.00    -0.074 A 
ATOM      3  C   UNL     1     -37.438 -41.648  19.393  1.00  0.00    -0.074 A 
ATOM      4  C   UNL     1     -37.746 -41.657  16.616  1.00  0.00    -0.051 A 
ATOM      5  H   UNL     1     -39.853 -41.845  16.991  1.00  0.00     0.084 H 
ATOM      6  C   UNL     1     -36.321 -41.537  18.564  1.00  0.00    -0.051 A 
ATOM      7  H   UNL     1     -37.296 -41.647  20.471  1.00  0.00     0.084 H 
ATOM      8  C   UNL     1     -36.483 -41.537  17.184  1.00  0.00     0.065 A 
ATOM      9  H   UNL     1     -37.881 -41.662  15.539  1.00  0.00     0.087 H 
ATOM     10  H   UNL     1     -35.328 -41.447  18.995  1.00  0.00     0.087 H 
ENDROOT
BRANCH   1  11
ATOM     11  C   UNL     1     -39.932 -41.845  19.735  1.00  0.00     0.025 C 
ATOM     12  H   UNL     1     -40.687 -42.507  19.293  1.00  0.00     0.052 H 
ATOM     13  H   UNL     1     -39.658 -42.320  20.684  1.00  0.00     0.052 H 
BRANCH  11  14
ATOM     14  C   UNL     1     -40.588 -40.513  19.975  1.00  0.00     0.229 C 
ATOM     15  O   UNL     1     -41.284 -39.899  19.170  1.00  0.00    -0.285 OA
BRANCH  14  16
ATOM     16  C   UNL     1     -40.376 -39.869  21.343  1.00  0.00     0.247 C 
ATOM     17  O   UNL     1     -39.510 -39.055  21.576  1.00  0.00    -0.642 OA
ATOM     18  O   UNL     1     -41.267 -40.352  22.231  1.00  0.00    -0.642 OA
ENDBRANCH  14  16
ENDBRANCH  11  14
ENDBRANCH   1  11
BRANCH   8  19
ATOM     19  O   UNL     1     -35.365 -41.414  16.415  1.00  0.00    -0.361 OA
ATOM     20  H   UNL     1     -34.625 -41.144  16.984  1.00  0.00     0.217 HD
ENDBRANCH   8  19
TORSDOF 4
ENDMDL
MODEL 2
REMARK VINA RESULT:    -2.299      1.321      5.286
REMARK INTER + INTRA:          -2.980
REMARK INTER:                  -2.797
REMARK INTRA:                  -0.184
REMARK UNBOUND:                -0.211
REMARK  4 active torsions:
REMARK  status: ('A' for Active; 'I' for Inactive)
REMARK    1  A    between atoms: C_1  and  C_2 
REMARK    2  A    between atoms: C_2  and  C_3 
REMARK    3  A    between atoms: C_3  and  C_4 
REMARK    4  A    between atoms: C_13  and  O_16 
ROOT
ATOM      1  C   UNL     1     -37.803 -41.204  19.996  1.00  0.00    -0.051 A 
ATOM      2  C   UNL     1     -39.037 -41.468  19.385  1.00  0.00    -0.074 A 
ATOM      3  C   UNL     1     -37.765 -40.374  21.126  1.00  0.00    -0.074 A 
ATOM      4  C   UNL     1     -40.216 -40.926  19.907  1.00  0.00    -0.051 A 
ATOM      5  H   UNL     1     -39.095 -42.106  18.505  1.00  0.00     0.084 H 
ATOM      6  C   UNL     1     -38.943 -39.838  21.648  1.00  0.00    -0.051 A 
ATOM      7  H   UNL     1     -36.820 -40.144  21.614  1.00  0.00     0.084 H 
ATOM      8  C   UNL     1     -40.159 -40.121  21.039  1.00  0.00     0.065 A 
ATOM      9  H   UNL     1     -41.162 -41.149  19.422  1.00  0.00     0.087 H 
ATOM     10  H   UNL     1     -38.911 -39.204  22.530  1.00  0.00     0.087 H 
ENDROOT
BRANCH   1  11
ATOM     11  C   UNL     1     -36.534 -41.804  19.448  1.00  0.00     0.025 C 
ATOM     12  H   UNL     1     -35.810 -41.973  20.254  1.00  0.00     0.052 H 
ATOM     13  H   UNL     1     -36.738 -42.798  19.037  1.00  0.00     0.052 H 
BRANCH  11  14
ATOM     14  C   UNL     1     -35.868 -40.928  18.422  1.00  0.00     0.229 C 
ATOM     15  O   UNL     1     -35.019 -40.071  18.651  1.00  0.00    -0.285 OA
BRANCH  14  16
ATOM     16  C   UNL     1     -36.280 -41.126  16.966  1.00  0.00     0.247 C 
ATOM     17  O   UNL     1     -37.358 -40.797  16.521  1.00  0.00    -0.642 OA
ATOM     18  O   UNL     1     -35.291 -41.726  16.277  1.00  0.00    -0.642 OA
ENDBRANCH  14  16
ENDBRANCH  11  14
ENDBRANCH   1  11
BRANCH   8  19
ATOM     19  O   UNL     1     -41.284 -39.585  21.590  1.00  0.00    -0.361 OA
ATOM     20  H   UNL     1     -41.149 -38.630  21.704  1.00  0.00     0.217 HD
ENDBRANCH   8  19
TORSDOF 4
ENDMDL
MODEL 3
REMARK VINA RESULT:    -2.096      1.732      5.050
REMARK INTER + INTRA:          -2.735
REMARK INTER:                  -3.808
REMARK INTRA:                   1.073
REMARK UNBOUND:                -0.211
REMARK  4 active torsions:
REMARK  status: ('A' for Active; 'I' for Inactive)
REMARK    1  A    between atoms: C_1  and  C_2 
REMARK    2  A    between atoms: C_2  and  C_3 
REMARK    3  A    between atoms: C_3  and  C_4 
REMARK    4  A    between atoms: C_13  and  O_16 
ROOT
ATOM      1  C   UNL     1     -38.123 -41.194  19.536  1.00  0.00    -0.051 A 
ATOM      2  C   UNL     1     -37.863 -40.408  20.668  1.00  0.00    -0.074 A 
ATOM      3  C   UNL     1     -39.452 -41.497  19.207  1.00  0.00    -0.074 A 
ATOM      4  C   UNL     1     -38.916 -39.916  21.446  1.00  0.00    -0.051 A 
ATOM      5  H   UNL     1     -36.841 -40.160  20.949  1.00  0.00     0.084 H 
ATOM      6  C   UNL     1     -40.502 -41.002  19.982  1.00  0.00    -0.051 A 
ATOM      7  H   UNL     1     -39.683 -42.114  18.341  1.00  0.00     0.084 H 
ATOM      8  C   UNL     1     -40.227 -40.213  21.092  1.00  0.00     0.065 A 
ATOM      9  H   UNL     1     -38.693 -39.303  22.314  1.00  0.00     0.087 H 
ATOM     10  H   UNL     1     -41.531 -41.229  19.718  1.00  0.00     0.087 H 
ENDROOT
BRANCH   1  11
ATOM     11  C   UNL     1     -36.991 -41.708  18.685  1.00  0.00     0.025 C 
ATOM     12  H   UNL     1     -36.025 -41.415  19.114  1.00  0.00     0.052 H 
ATOM     13  H   UNL     1     -36.985 -42.803  18.693  1.00  0.00     0.052 H 
BRANCH  11  14
ATOM     14  C   UNL     1     -37.033 -41.183  17.276  1.00  0.00     0.229 C 
ATOM     15  O   UNL     1     -36.058 -40.933  16.573  1.00  0.00    -0.285 OA
BRANCH  14  16
ATOM     16  C   UNL     1     -38.411 -40.946  16.663  1.00  0.00     0.247 C 
ATOM     17  O   UNL     1     -39.175 -41.836  16.359  1.00  0.00    -0.642 OA
ATOM     18  O   UNL     1     -38.629 -39.627  16.499  1.00  0.00    -0.642 OA
ENDBRANCH  14  16
ENDBRANCH  11  14
ENDBRANCH   1  11
BRANCH   8  19
ATOM     19  O   UNL     1     -41.284 -39.741  21.811  1.00  0.00    -0.361 OA
ATOM     20  H   UNL     1     -41.238 -40.111  22.709  1.00  0.00     0.217 HD
ENDBRANCH   8  19
TORSDOF 4
ENDMDL
MODEL 4
REMARK VINA RESULT:    -1.926      2.488      3.844
REMARK INTER + INTRA:          -2.531
REMARK INTER:                  -3.175
REMARK INTRA:                   0.644
REMARK UNBOUND:                -0.211
REMARK  4 active torsions:
REMARK  status: ('A' for Active; 'I' for Inactive)
REMARK    1  A    between atoms: C_1  and  C_2 
REMARK    2  A    between atoms: C_2  and  C_3 
REMARK    3  A    between atoms: C_3  and  C_4 
REMARK    4  A    between atoms: C_13  and  O_16 
ROOT
ATOM      1  C   UNL     1     -39.557 -41.212  19.430  1.00  0.00    -0.051 A 
ATOM      2  C   UNL     1     -38.351 -41.845  19.095  1.00  0.00    -0.074 A 
ATOM      3  C   UNL     1     -39.581 -40.318  20.510  1.00  0.00    -0.074 A 
ATOM      4  C   UNL     1     -37.184 -41.574  19.817  1.00  0.00    -0.051 A 
ATOM      5  H   UNL     1     -38.305 -42.545  18.263  1.00  0.00     0.084 H 
ATOM      6  C   UNL     1     -38.415 -40.046  21.227  1.00  0.00    -0.051 A 
ATOM      7  H   UNL     1     -40.505 -39.822  20.799  1.00  0.00     0.084 H 
ATOM      8  C   UNL     1     -37.226 -40.671  20.873  1.00  0.00     0.065 A 
ATOM      9  H   UNL     1     -36.260 -42.070  19.537  1.00  0.00     0.087 H 
ATOM     10  H   UNL     1     -38.435 -39.345  22.057  1.00  0.00     0.087 H 
ENDROOT
BRANCH   1  11
ATOM     11  C   UNL     1     -40.810 -41.487  18.640  1.00  0.00     0.025 C 
ATOM     12  H   UNL     1     -41.147 -42.518  18.800  1.00  0.00     0.052 H 
ATOM     13  H   UNL     1     -41.629 -40.860  19.009  1.00  0.00     0.052 H 
BRANCH  11  14
ATOM     14  C   UNL     1     -40.621 -41.302  17.159  1.00  0.00     0.229 C 
ATOM     15  O   UNL     1     -41.282 -41.845  16.277  1.00  0.00    -0.285 OA
BRANCH  14  16
ATOM     16  C   UNL     1     -39.514 -40.352  16.712  1.00  0.00     0.247 C 
ATOM     17  O   UNL     1     -39.613 -39.144  16.733  1.00  0.00    -0.642 OA
ATOM     18  O   UNL     1     -38.444 -41.049  16.283  1.00  0.00    -0.642 OA
ENDBRANCH  14  16
ENDBRANCH  11  14
ENDBRANCH   1  11
BRANCH   8  19
ATOM     19  O   UNL     1     -36.111 -40.365  21.593  1.00  0.00    -0.361 OA
ATOM     20  H   UNL     1     -35.939 -41.086  22.222  1.00  0.00     0.217 HD
ENDBRANCH   8  19
TORSDOF 4
ENDMDL
MODEL 5
REMARK VINA RESULT:    -1.593      2.048      4.501
REMARK INTER + INTRA:          -2.129
REMARK INTER:                  -1.912
REMARK INTRA:                  -0.217
REMARK UNBOUND:                -0.211
REMARK  4 active torsions:
REMARK  status: ('A' for Active; 'I' for Inactive)
REMARK    1  A    between atoms: C_1  and  C_2 
REMARK    2  A    between atoms: C_2  and  C_3 
REMARK    3  A    between atoms: C_3  and  C_4 
REMARK    4  A    between atoms: C_13  and  O_16 
ROOT
ATOM      1  C   UNL     1     -38.690 -41.160  19.589  1.00  0.00    -0.051 A 
ATOM      2  C   UNL     1     -37.369 -41.310  20.034  1.00  0.00    -0.074 A 
ATOM      3  C   UNL     1     -39.574 -40.363  20.331  1.00  0.00    -0.074 A 
ATOM      4  C   UNL     1     -36.933 -40.659  21.192  1.00  0.00    -0.051 A 
ATOM      5  H   UNL     1     -36.663 -41.926  19.479  1.00  0.00     0.084 H 
ATOM      6  C   UNL     1     -39.135 -39.710  21.485  1.00  0.00    -0.051 A 
ATOM      7  H   UNL     1     -40.607 -40.237  20.016  1.00  0.00     0.084 H 
ATOM      8  C   UNL     1     -37.819 -39.858  21.904  1.00  0.00     0.065 A 
ATOM      9  H   UNL     1     -35.904 -40.783  21.515  1.00  0.00     0.087 H 
ATOM     10  H   UNL     1     -39.819 -39.084  22.052  1.00  0.00     0.087 H 
ENDROOT
BRANCH   1  11
ATOM     11  C   UNL     1     -39.156 -41.844  18.331  1.00  0.00     0.025 C 
ATOM     12  H   UNL     1     -38.726 -42.850  18.258  1.00  0.00     0.052 H 
ATOM     13  H   UNL     1     -40.240 -42.001  18.370  1.00  0.00     0.052 H 
BRANCH  11  14
ATOM     14  C   UNL     1     -38.769 -41.100  17.082  1.00  0.00     0.229 C 
ATOM     15  O   UNL     1     -37.698 -41.199  16.489  1.00  0.00    -0.285 OA
BRANCH  14  16
ATOM     16  C   UNL     1     -39.802 -40.141  16.495  1.00  0.00     0.247 C 
ATOM     17  O   UNL     1     -39.586 -38.968  16.281  1.00  0.00    -0.642 OA
ATOM     18  O   UNL     1     -40.966 -40.783  16.278  1.00  0.00    -0.642 OA
ENDBRANCH  14  16
ENDBRANCH  11  14
ENDBRANCH   1  11
BRANCH   8  19
ATOM     19  O   UNL     1     -37.433 -39.192  23.028  1.00  0.00    -0.361 OA
ATOM     20  H   UNL     1     -36.463 -39.208  23.080  1.00  0.00     0.217 HD
ENDBRANCH   8  19
TORSDOF 4
ENDMDL
MODEL 6
REMARK VINA RESULT:    -1.260      2.547      4.277
REMARK INTER + INTRA:          -1.728
REMARK INTER:                  -2.145
REMARK INTRA:                   0.417
REMARK UNBOUND:                -0.211
REMARK  4 active torsions:
REMARK  status: ('A' for Active; 'I' for Inactive)
REMARK    1  A    between atoms: C_1  and  C_2 
REMARK    2  A    between atoms: C_2  and  C_3 
REMARK    3  A    between atoms: C_3  and  C_4 
REMARK    4  A    between atoms: C_13  and  O_16 
ROOT
ATOM      1  C   UNL     1     -38.600 -41.384  19.450  1.00  0.00    -0.051 A 
ATOM      2  C   UNL     1     -39.943 -41.038  19.657  1.00  0.00    -0.074 A 
ATOM      3  C   UNL     1     -38.192 -41.799  18.174  1.00  0.00    -0.074 A 
ATOM      4  C   UNL     1     -40.859 -41.089  18.601  1.00  0.00    -0.051 A 
ATOM      5  H   UNL     1     -40.287 -40.715  20.638  1.00  0.00     0.084 H 
ATOM      6  C   UNL     1     -39.106 -41.845  17.121  1.00  0.00    -0.051 A 
ATOM      7  H   UNL     1     -37.159 -42.084  17.987  1.00  0.00     0.084 H 
ATOM      8  C   UNL     1     -40.430 -41.485  17.340  1.00  0.00     0.065 A 
ATOM      9  H   UNL     1     -41.892 -40.810  18.782  1.00  0.00     0.087 H 
ATOM     10  H   UNL     1     -38.785 -42.156  16.130  1.00  0.00     0.087 H 
ENDROOT
BRANCH   1  11
ATOM     11  C   UNL     1     -37.608 -41.310  20.580  1.00  0.00     0.025 C 
ATOM     12  H   UNL     1     -37.859 -40.486  21.259  1.00  0.00     0.052 H 
ATOM     13  H   UNL     1     -37.674 -42.215  21.195  1.00  0.00     0.052 H 
BRANCH  11  14
ATOM     14  C   UNL     1     -36.197 -41.088  20.108  1.00  0.00     0.229 C 
ATOM     15  O   UNL     1     -35.626 -41.723  19.225  1.00  0.00    -0.285 OA
BRANCH  14  16
ATOM     16  C   UNL     1     -35.406 -39.971  20.782  1.00  0.00     0.247 C 
ATOM     17  O   UNL     1     -35.596 -39.603  21.921  1.00  0.00    -0.642 OA
ATOM     18  O   UNL     1     -34.500 -39.457  19.927  1.00  0.00    -0.642 OA
ENDBRANCH  14  16
ENDBRANCH  11  14
ENDBRANCH   1  11
BRANCH   8  19
ATOM     19  O   UNL     1     -41.284 -41.534  16.279  1.00  0.00    -0.361 OA
ATOM     20  H   UNL     1     -41.253 -40.680  15.817  1.00  0.00     0.217 HD
ENDBRANCH   8  19
TORSDOF 4
ENDMDL
MODEL 7
REMARK VINA RESULT:    -1.226      2.299      4.242
REMARK INTER + INTRA:          -1.688
REMARK INTER:                  -1.778
REMARK INTRA:                   0.090
REMARK UNBOUND:                -0.211
REMARK  4 active torsions:
REMARK  status: ('A' for Active; 'I' for Inactive)
REMARK    1  A    between atoms: C_1  and  C_2 
REMARK    2  A    between atoms: C_2  and  C_3 
REMARK    3  A    between atoms: C_3  and  C_4 
REMARK    4  A    between atoms: C_13  and  O_16 
ROOT
ATOM      1  C   UNL     1     -37.720 -41.741  18.559  1.00  0.00    -0.051 A 
ATOM      2  C   UNL     1     -38.944 -41.758  19.244  1.00  0.00    -0.074 A 
ATOM      3  C   UNL     1     -37.723 -41.636  17.161  1.00  0.00    -0.074 A 
ATOM      4  C   UNL     1     -40.150 -41.653  18.543  1.00  0.00    -0.051 A 
ATOM      5  H   UNL     1     -38.972 -41.842  20.329  1.00  0.00     0.084 H 
ATOM      6  C   UNL     1     -38.926 -41.527  16.463  1.00  0.00    -0.051 A 
ATOM      7  H   UNL     1     -36.789 -41.631  16.603  1.00  0.00     0.084 H 
ATOM      8  C   UNL     1     -40.129 -41.531  17.158  1.00  0.00     0.065 A 
ATOM      9  H   UNL     1     -41.086 -41.661  19.093  1.00  0.00     0.087 H 
ATOM     10  H   UNL     1     -38.925 -41.435  15.380  1.00  0.00     0.087 H 
ENDROOT
BRANCH   1  11
ATOM     11  C   UNL     1     -36.420 -41.833  19.314  1.00  0.00     0.025 C 
ATOM     12  H   UNL     1     -36.319 -42.818  19.785  1.00  0.00     0.052 H 
ATOM     13  H   UNL     1     -35.578 -41.763  18.617  1.00  0.00     0.052 H 
BRANCH  11  14
ATOM     14  C   UNL     1     -36.300 -40.801  20.402  1.00  0.00     0.229 C 
ATOM     15  O   UNL     1     -37.044 -40.690  21.373  1.00  0.00    -0.285 OA
BRANCH  14  16
ATOM     16  C   UNL     1     -35.148 -39.806  20.293  1.00  0.00     0.247 C 
ATOM     17  O   UNL     1     -34.532 -39.598  19.270  1.00  0.00    -0.642 OA
ATOM     18  O   UNL     1     -34.917 -39.225  21.486  1.00  0.00    -0.642 OA
ENDBRANCH  14  16
ENDBRANCH  11  14
ENDBRANCH   1  11
BRANCH   8  19
ATOM     19  O   UNL     1     -41.279 -41.410  16.436  1.00  0.00    -0.361 OA
ATOM     20  H   UNL     1     -41.074 -41.563  15.499  1.00  0.00     0.217 HD
ENDBRANCH   8  19
TORSDOF 4
ENDMDL
MODEL 8
REMARK VINA RESULT:    -0.593      1.868      3.232
REMARK INTER + INTRA:          -0.925
REMARK INTER:                  -0.853
REMARK INTRA:                  -0.072
REMARK UNBOUND:                -0.211
REMARK  4 active torsions:
REMARK  status: ('A' for Active; 'I' for Inactive)
REMARK    1  A    between atoms: C_1  and  C_2 
REMARK    2  A    between atoms: C_2  and  C_3 
REMARK    3  A    between atoms: C_3  and  C_4 
REMARK    4  A    between atoms: C_13  and  O_16 
ROOT
ATOM      1  C   UNL     1     -38.006 -41.302  19.504  1.00  0.00    -0.051 A 
ATOM      2  C   UNL     1     -37.386 -40.738  20.628  1.00  0.00    -0.074 A 
ATOM      3  C   UNL     1     -37.303 -41.355  18.291  1.00  0.00    -0.074 A 
ATOM      4  C   UNL     1     -36.077 -40.251  20.546  1.00  0.00    -0.051 A 
ATOM      5  H   UNL     1     -37.910 -40.681  21.580  1.00  0.00     0.084 H 
ATOM      6  C   UNL     1     -35.996 -40.873  18.212  1.00  0.00    -0.051 A 
ATOM      7  H   UNL     1     -37.764 -41.777  17.401  1.00  0.00     0.084 H 
ATOM      8  C   UNL     1     -35.391 -40.330  19.339  1.00  0.00     0.065 A 
ATOM      9  H   UNL     1     -35.613 -39.825  21.430  1.00  0.00     0.087 H 
ATOM     10  H   UNL     1     -35.450 -40.925  17.274  1.00  0.00     0.087 H 
ENDROOT
BRANCH   1  11
ATOM     11  C   UNL     1     -39.408 -41.845  19.596  1.00  0.00     0.025 C 
ATOM     12  H   UNL     1     -39.485 -42.804  19.069  1.00  0.00     0.052 H 
ATOM     13  H   UNL     1     -39.653 -42.074  20.639  1.00  0.00     0.052 H 
BRANCH  11  14
ATOM     14  C   UNL     1     -40.435 -40.922  18.998  1.00  0.00     0.229 C 
ATOM     15  O   UNL     1     -41.166 -40.158  19.624  1.00  0.00    -0.285 OA
BRANCH  14  16
ATOM     16  C   UNL     1     -40.577 -40.931  17.479  1.00  0.00     0.247 C 
ATOM     17  O   UNL     1     -41.097 -41.831  16.856  1.00  0.00    -0.642 OA
ATOM     18  O   UNL     1     -40.030 -39.818  16.951  1.00  0.00    -0.642 OA
ENDBRANCH  14  16
ENDBRANCH  11  14
ENDBRANCH   1  11
BRANCH   8  19
ATOM     19  O   UNL     1     -34.110 -39.884  19.217  1.00  0.00    -0.361 OA
ATOM     20  H   UNL     1     -33.826 -40.002  18.296  1.00  0.00     0.217 HD
ENDBRANCH   8  19
TORSDOF 4
ENDMDL
